# generated using pymatgen
data_Li3ScCl6
_symmetry_space_group_name_H-M   'P 1'
_cell_length_a   6.33117392
_cell_length_b   10.92880196
_cell_length_c   23.93792923
_cell_angle_alpha   90.00000000
_cell_angle_beta   95.16070078
_cell_angle_gamma   90.00000000
_symmetry_Int_Tables_number   1
_chemical_formula_structural   Li3ScCl6
_chemical_formula_sum   'Li24 Sc8 Cl48'
_cell_volume   1649.60253174
_cell_formula_units_Z   8
loop_
 _symmetry_equiv_pos_site_id
 _symmetry_equiv_pos_as_xyz
  1  'x, y, z'
loop_
 _atom_type_symbol
 _atom_type_oxidation_number
  Li+  1.0
  Sc3+  3.0
  Cl-  -1.0
loop_
 _atom_site_type_symbol
 _atom_site_label
 _atom_site_symmetry_multiplicity
 _atom_site_fract_x
 _atom_site_fract_y
 _atom_site_fract_z
 _atom_site_occupancy
  Li+  Li0  1  0.12539101  0.04369835  0.37498629  1
  Li+  Li1  1  0.87460899  0.04369835  0.62501371  1
  Li+  Li2  1  0.62179583  0.03984708  0.87503410  1
  Li+  Li3  1  0.62525452  0.20560510  0.37506482  1
  Li+  Li4  1  0.37820417  0.03984708  0.12496590  1
  Li+  Li5  1  0.74967129  0.04101155  0.25002411  1
  Li+  Li6  1  0.37474549  0.20560510  0.62493518  1
  Li+  Li7  1  0.50000000  0.87527858  0.00000000  1
  Li+  Li8  1  0.50000000  0.04081140  0.50000000  1
  Li+  Li9  1  0.62702106  0.71011071  0.87474915  1
  Li+  Li10  1  0.25032871  0.04101155  0.74997589  1
  Li+  Li11  1  0.37297894  0.71011071  0.12525085  1
  Li+  Li12  1  0.62539101  0.54369835  0.37498629  1
  Li+  Li13  1  0.37460899  0.54369835  0.62501371  1
  Li+  Li14  1  0.12179583  0.53984708  0.87503410  1
  Li+  Li15  1  0.12525451  0.70560510  0.37506482  1
  Li+  Li16  1  0.87820417  0.53984708  0.12496590  1
  Li+  Li17  1  0.24967129  0.54101155  0.25002411  1
  Li+  Li18  1  0.87474549  0.70560510  0.62493518  1
  Li+  Li19  1  0.00000000  0.37527858  0.00000000  1
  Li+  Li20  1  0.00000000  0.54081140  0.50000000  1
  Li+  Li21  1  0.12702106  0.21011070  0.87474915  1
  Li+  Li22  1  0.75032871  0.54101155  0.74997589  1
  Li+  Li23  1  0.87297894  0.21011070  0.12525085  1
  Sc3+  Sc24  1  0.62510464  0.87349601  0.37501990  1
  Sc3+  Sc25  1  0.37489536  0.87349601  0.62498010  1
  Sc3+  Sc26  1  0.62242134  0.37420585  0.87505736  1
  Sc3+  Sc27  1  0.37757867  0.37420585  0.12494264  1
  Sc3+  Sc28  1  0.12510464  0.37349601  0.37501990  1
  Sc3+  Sc29  1  0.87489536  0.37349601  0.62498010  1
  Sc3+  Sc30  1  0.12242133  0.87420585  0.87505736  1
  Sc3+  Sc31  1  0.87757867  0.87420585  0.12494264  1
  Cl-  Cl32  1  0.45416189  0.03760242  0.31412848  1
  Cl-  Cl33  1  0.57665102  0.88002995  0.18529694  1
  Cl-  Cl34  1  0.20442778  0.03745514  0.56395879  1
  Cl-  Cl35  1  0.04636328  0.04079243  0.18417985  1
  Cl-  Cl36  1  0.32045803  0.88120152  0.43353527  1
  Cl-  Cl37  1  0.95363673  0.04079243  0.81582015  1
  Cl-  Cl38  1  0.79557222  0.03745514  0.43604121  1
  Cl-  Cl39  1  0.43749865  0.70867798  0.31739942  1
  Cl-  Cl40  1  0.56984785  0.38164900  0.68337378  1
  Cl-  Cl41  1  0.43015215  0.38164900  0.31662622  1
  Cl-  Cl42  1  0.68735038  0.03161631  0.06409833  1
  Cl-  Cl43  1  0.54583812  0.03760242  0.68587152  1
  Cl-  Cl44  1  0.68744350  0.20878944  0.56737553  1
  Cl-  Cl45  1  0.55957637  0.20763160  0.18258629  1
  Cl-  Cl46  1  0.81080436  0.87594217  0.93213258  1
  Cl-  Cl47  1  0.67954197  0.88120152  0.56646473  1
  Cl-  Cl48  1  0.31264962  0.03161631  0.93590167  1
  Cl-  Cl49  1  0.44042363  0.20763160  0.81741371  1
  Cl-  Cl50  1  0.31255650  0.20878944  0.43262447  1
  Cl-  Cl51  1  0.42334898  0.88002995  0.81470306  1
  Cl-  Cl52  1  0.68363785  0.71609192  0.06582935  1
  Cl-  Cl53  1  0.56250135  0.70867798  0.68260058  1
  Cl-  Cl54  1  0.18919564  0.87594217  0.06786742  1
  Cl-  Cl55  1  0.31636215  0.71609192  0.93417065  1
  Cl-  Cl56  1  0.95416189  0.53760242  0.31412848  1
  Cl-  Cl57  1  0.07665102  0.38002995  0.18529694  1
  Cl-  Cl58  1  0.70442778  0.53745514  0.56395879  1
  Cl-  Cl59  1  0.54636328  0.54079244  0.18417985  1
  Cl-  Cl60  1  0.82045803  0.38120152  0.43353527  1
  Cl-  Cl61  1  0.45363672  0.54079244  0.81582015  1
  Cl-  Cl62  1  0.29557222  0.53745514  0.43604121  1
  Cl-  Cl63  1  0.93749865  0.20867797  0.31739942  1
  Cl-  Cl64  1  0.06984785  0.88164900  0.68337378  1
  Cl-  Cl65  1  0.93015215  0.88164900  0.31662622  1
  Cl-  Cl66  1  0.18735038  0.53161631  0.06409833  1
  Cl-  Cl67  1  0.04583812  0.53760242  0.68587152  1
  Cl-  Cl68  1  0.18744350  0.70878944  0.56737553  1
  Cl-  Cl69  1  0.05957637  0.70763160  0.18258629  1
  Cl-  Cl70  1  0.31080436  0.37594217  0.93213258  1
  Cl-  Cl71  1  0.17954197  0.38120152  0.56646473  1
  Cl-  Cl72  1  0.81264962  0.53161631  0.93590167  1
  Cl-  Cl73  1  0.94042363  0.70763160  0.81741371  1
  Cl-  Cl74  1  0.81255650  0.70878944  0.43262447  1
  Cl-  Cl75  1  0.92334898  0.38002995  0.81470306  1
  Cl-  Cl76  1  0.18363785  0.21609192  0.06582935  1
  Cl-  Cl77  1  0.06250135  0.20867797  0.68260058  1
  Cl-  Cl78  1  0.68919564  0.37594217  0.06786742  1
  Cl-  Cl79  1  0.81636215  0.21609192  0.93417065  1
