# generated using pymatgen
data_GaP
_symmetry_space_group_name_H-M   'P 1'
_cell_length_a   11.50036420
_cell_length_b   11.50036420
_cell_length_c   56.79846868
_cell_angle_alpha   90.00000000
_cell_angle_beta   90.00000000
_cell_angle_gamma   90.00000000
_symmetry_Int_Tables_number   1
_chemical_formula_structural   GaP
_chemical_formula_sum   'Ga126 P126'
_cell_volume   7512.07326885
_cell_formula_units_Z   126
loop_
 _symmetry_equiv_pos_site_id
 _symmetry_equiv_pos_as_xyz
  1  'x, y, z'
loop_
 _atom_type_symbol
 _atom_type_oxidation_number
  Ga3+  3.0
  P3-  -3.0
loop_
 _atom_site_type_symbol
 _atom_site_label
 _atom_site_symmetry_multiplicity
 _atom_site_fract_x
 _atom_site_fract_y
 _atom_site_fract_z
 _atom_site_occupancy
  Ga3+  Ga0  1  0.00000000  0.33333333  0.24804751  1
  Ga3+  Ga1  1  0.00000000  -0.00000000  0.24804751  1
  Ga3+  Ga2  1  0.00000000  0.66666667  0.24804751  1
  Ga3+  Ga3  1  0.33333333  0.33333333  0.24804751  1
  Ga3+  Ga4  1  0.33333333  -0.00000000  0.24804751  1
  Ga3+  Ga5  1  0.33333333  0.66666667  0.24804751  1
  Ga3+  Ga6  1  0.66666667  0.33333333  0.24804751  1
  Ga3+  Ga7  1  0.66666667  -0.00000000  0.24804751  1
  Ga3+  Ga8  1  0.66666667  0.66666667  0.24804751  1
  Ga3+  Ga9  1  0.16666667  0.50000000  0.20005656  1
  Ga3+  Ga10  1  0.16666667  0.16666667  0.20005656  1
  Ga3+  Ga11  1  0.16666667  0.83333333  0.20005656  1
  Ga3+  Ga12  1  0.50000000  0.50000000  0.20005656  1
  Ga3+  Ga13  1  0.50000000  0.16666667  0.20005656  1
  Ga3+  Ga14  1  0.50000000  0.83333333  0.20005656  1
  Ga3+  Ga15  1  0.83333333  0.50000000  0.20005656  1
  Ga3+  Ga16  1  0.83333333  0.16666667  0.20005656  1
  Ga3+  Ga17  1  0.83333333  0.83333333  0.20005656  1
  Ga3+  Ga18  1  0.00000000  0.33333333  0.34402941  1
  Ga3+  Ga19  1  0.00000000  -0.00000000  0.34402941  1
  Ga3+  Ga20  1  0.00000000  0.66666667  0.34402941  1
  Ga3+  Ga21  1  0.33333333  0.33333333  0.34402941  1
  Ga3+  Ga22  1  0.33333333  -0.00000000  0.34402941  1
  Ga3+  Ga23  1  0.33333333  0.66666667  0.34402941  1
  Ga3+  Ga24  1  0.66666667  0.33333333  0.34402941  1
  Ga3+  Ga25  1  0.66666667  -0.00000000  0.34402941  1
  Ga3+  Ga26  1  0.66666667  0.66666667  0.34402941  1
  Ga3+  Ga27  1  0.16666667  0.50000000  0.29603846  1
  Ga3+  Ga28  1  0.16666667  0.16666667  0.29603846  1
  Ga3+  Ga29  1  0.16666667  0.83333333  0.29603846  1
  Ga3+  Ga30  1  0.50000000  0.50000000  0.29603846  1
  Ga3+  Ga31  1  0.50000000  0.16666667  0.29603846  1
  Ga3+  Ga32  1  0.50000000  0.83333333  0.29603846  1
  Ga3+  Ga33  1  0.83333333  0.50000000  0.29603846  1
  Ga3+  Ga34  1  0.83333333  0.16666667  0.29603846  1
  Ga3+  Ga35  1  0.83333333  0.83333333  0.29603846  1
  Ga3+  Ga36  1  0.00000000  0.33333333  0.44001131  1
  Ga3+  Ga37  1  0.00000000  -0.00000000  0.44001131  1
  Ga3+  Ga38  1  0.00000000  0.66666667  0.44001131  1
  Ga3+  Ga39  1  0.33333333  0.33333333  0.44001131  1
  Ga3+  Ga40  1  0.33333333  -0.00000000  0.44001131  1
  Ga3+  Ga41  1  0.33333333  0.66666667  0.44001131  1
  Ga3+  Ga42  1  0.66666667  0.33333333  0.44001131  1
  Ga3+  Ga43  1  0.66666667  -0.00000000  0.44001131  1
  Ga3+  Ga44  1  0.66666667  0.66666667  0.44001131  1
  Ga3+  Ga45  1  0.16666667  0.50000000  0.39202036  1
  Ga3+  Ga46  1  0.16666667  0.16666667  0.39202036  1
  Ga3+  Ga47  1  0.16666667  0.83333333  0.39202036  1
  Ga3+  Ga48  1  0.50000000  0.50000000  0.39202036  1
  Ga3+  Ga49  1  0.50000000  0.16666667  0.39202036  1
  Ga3+  Ga50  1  0.50000000  0.83333333  0.39202036  1
  Ga3+  Ga51  1  0.83333333  0.50000000  0.39202036  1
  Ga3+  Ga52  1  0.83333333  0.16666667  0.39202036  1
  Ga3+  Ga53  1  0.83333333  0.83333333  0.39202036  1
  Ga3+  Ga54  1  0.00000000  0.33333333  0.53599321  1
  Ga3+  Ga55  1  0.00000000  -0.00000000  0.53599321  1
  Ga3+  Ga56  1  0.00000000  0.66666667  0.53599321  1
  Ga3+  Ga57  1  0.33333333  0.33333333  0.53599321  1
  Ga3+  Ga58  1  0.33333333  -0.00000000  0.53599321  1
  Ga3+  Ga59  1  0.33333333  0.66666667  0.53599321  1
  Ga3+  Ga60  1  0.66666667  0.33333333  0.53599321  1
  Ga3+  Ga61  1  0.66666667  -0.00000000  0.53599321  1
  Ga3+  Ga62  1  0.66666667  0.66666667  0.53599321  1
  Ga3+  Ga63  1  0.16666667  0.50000000  0.48800226  1
  Ga3+  Ga64  1  0.16666667  0.16666667  0.48800226  1
  Ga3+  Ga65  1  0.16666667  0.83333333  0.48800226  1
  Ga3+  Ga66  1  0.50000000  0.50000000  0.48800226  1
  Ga3+  Ga67  1  0.50000000  0.16666667  0.48800226  1
  Ga3+  Ga68  1  0.50000000  0.83333333  0.48800226  1
  Ga3+  Ga69  1  0.83333333  0.50000000  0.48800226  1
  Ga3+  Ga70  1  0.83333333  0.16666667  0.48800226  1
  Ga3+  Ga71  1  0.83333333  0.83333333  0.48800226  1
  Ga3+  Ga72  1  0.33333333  0.66666667  0.63197511  1
  Ga3+  Ga73  1  0.33333333  0.33333333  0.63197511  1
  Ga3+  Ga74  1  0.33333333  -0.00000000  0.63197511  1
  Ga3+  Ga75  1  0.66666667  0.66666667  0.63197511  1
  Ga3+  Ga76  1  0.66666667  0.33333333  0.63197511  1
  Ga3+  Ga77  1  0.66666667  -0.00000000  0.63197511  1
  Ga3+  Ga78  1  1.00000000  0.66666667  0.63197511  1
  Ga3+  Ga79  1  1.00000000  0.33333333  0.63197511  1
  Ga3+  Ga80  1  0.00000000  -0.00000000  0.63197511  1
  Ga3+  Ga81  1  0.16666667  0.50000000  0.58398416  1
  Ga3+  Ga82  1  0.16666667  0.16666667  0.58398416  1
  Ga3+  Ga83  1  0.16666667  0.83333333  0.58398416  1
  Ga3+  Ga84  1  0.50000000  0.50000000  0.58398416  1
  Ga3+  Ga85  1  0.50000000  0.16666667  0.58398416  1
  Ga3+  Ga86  1  0.50000000  0.83333333  0.58398416  1
  Ga3+  Ga87  1  0.83333333  0.50000000  0.58398416  1
  Ga3+  Ga88  1  0.83333333  0.16666667  0.58398416  1
  Ga3+  Ga89  1  0.83333333  0.83333333  0.58398416  1
  Ga3+  Ga90  1  0.33333333  0.66666667  0.72795701  1
  Ga3+  Ga91  1  0.33333333  0.33333333  0.72795701  1
  Ga3+  Ga92  1  0.33333333  -0.00000000  0.72795701  1
  Ga3+  Ga93  1  0.66666667  0.66666667  0.72795701  1
  Ga3+  Ga94  1  0.66666667  0.33333333  0.72795701  1
  Ga3+  Ga95  1  0.66666667  -0.00000000  0.72795701  1
  Ga3+  Ga96  1  1.00000000  0.66666667  0.72795701  1
  Ga3+  Ga97  1  0.00000000  0.33333333  0.72795701  1
  Ga3+  Ga98  1  1.00000000  -0.00000000  0.72795701  1
  Ga3+  Ga99  1  0.16666667  0.50000000  0.67996606  1
  Ga3+  Ga100  1  0.16666667  0.16666667  0.67996606  1
  Ga3+  Ga101  1  0.16666667  0.83333333  0.67996606  1
  Ga3+  Ga102  1  0.50000000  0.50000000  0.67996606  1
  Ga3+  Ga103  1  0.50000000  0.16666667  0.67996606  1
  Ga3+  Ga104  1  0.50000000  0.83333333  0.67996606  1
  Ga3+  Ga105  1  0.83333333  0.50000000  0.67996606  1
  Ga3+  Ga106  1  0.83333333  0.16666667  0.67996606  1
  Ga3+  Ga107  1  0.83333333  0.83333333  0.67996606  1
  Ga3+  Ga108  1  0.00000000  0.33333333  0.82393892  1
  Ga3+  Ga109  1  0.00000000  -0.00000000  0.82393892  1
  Ga3+  Ga110  1  0.00000000  0.66666667  0.82393892  1
  Ga3+  Ga111  1  0.33333333  0.33333333  0.82393892  1
  Ga3+  Ga112  1  0.33333333  -0.00000000  0.82393892  1
  Ga3+  Ga113  1  0.33333333  0.66666667  0.82393892  1
  Ga3+  Ga114  1  0.66666667  0.33333333  0.82393892  1
  Ga3+  Ga115  1  0.66666667  -0.00000000  0.82393892  1
  Ga3+  Ga116  1  0.66666667  0.66666667  0.82393892  1
  Ga3+  Ga117  1  0.16666667  0.50000000  0.77594796  1
  Ga3+  Ga118  1  0.16666667  0.16666667  0.77594796  1
  Ga3+  Ga119  1  0.16666667  0.83333333  0.77594796  1
  Ga3+  Ga120  1  0.50000000  0.50000000  0.77594796  1
  Ga3+  Ga121  1  0.50000000  0.16666667  0.77594796  1
  Ga3+  Ga122  1  0.50000000  0.83333333  0.77594796  1
  Ga3+  Ga123  1  0.83333333  0.50000000  0.77594796  1
  Ga3+  Ga124  1  0.83333333  0.16666667  0.77594796  1
  Ga3+  Ga125  1  0.83333333  0.83333333  0.77594796  1
  P3-  P126  1  0.33333333  0.50000000  0.22405204  1
  P3-  P127  1  0.33333333  0.16666667  0.22405204  1
  P3-  P128  1  0.33333333  0.83333333  0.22405204  1
  P3-  P129  1  0.66666667  0.50000000  0.22405204  1
  P3-  P130  1  0.66666667  0.16666667  0.22405204  1
  P3-  P131  1  0.66666667  0.83333333  0.22405204  1
  P3-  P132  1  0.00000000  0.50000000  0.22405204  1
  P3-  P133  1  0.00000000  0.16666667  0.22405204  1
  P3-  P134  1  1.00000000  0.83333333  0.22405204  1
  P3-  P135  1  0.16666667  0.33333333  0.17606108  1
  P3-  P136  1  0.16666667  -0.00000000  0.17606108  1
  P3-  P137  1  0.16666667  0.66666667  0.17606108  1
  P3-  P138  1  0.50000000  0.33333333  0.17606108  1
  P3-  P139  1  0.50000000  -0.00000000  0.17606108  1
  P3-  P140  1  0.50000000  0.66666667  0.17606108  1
  P3-  P141  1  0.83333333  0.33333333  0.17606108  1
  P3-  P142  1  0.83333333  -0.00000000  0.17606108  1
  P3-  P143  1  0.83333333  0.66666667  0.17606108  1
  P3-  P144  1  0.33333333  0.50000000  0.32003394  1
  P3-  P145  1  0.33333333  0.16666667  0.32003394  1
  P3-  P146  1  0.33333333  0.83333333  0.32003394  1
  P3-  P147  1  0.66666667  0.50000000  0.32003394  1
  P3-  P148  1  0.66666667  0.16666667  0.32003394  1
  P3-  P149  1  0.66666667  0.83333333  0.32003394  1
  P3-  P150  1  1.00000000  0.50000000  0.32003394  1
  P3-  P151  1  1.00000000  0.16666667  0.32003394  1
  P3-  P152  1  1.00000000  0.83333333  0.32003394  1
  P3-  P153  1  0.16666667  0.66666667  0.27204299  1
  P3-  P154  1  0.16666667  0.33333333  0.27204299  1
  P3-  P155  1  0.16666667  -0.00000000  0.27204299  1
  P3-  P156  1  0.50000000  0.66666667  0.27204299  1
  P3-  P157  1  0.50000000  0.33333333  0.27204299  1
  P3-  P158  1  0.50000000  -0.00000000  0.27204299  1
  P3-  P159  1  0.83333333  0.66666667  0.27204299  1
  P3-  P160  1  0.83333333  0.33333333  0.27204299  1
  P3-  P161  1  0.83333333  -0.00000000  0.27204299  1
  P3-  P162  1  0.00000000  0.50000000  0.41601584  1
  P3-  P163  1  0.00000000  0.16666667  0.41601584  1
  P3-  P164  1  0.00000000  0.83333333  0.41601584  1
  P3-  P165  1  0.33333333  0.50000000  0.41601584  1
  P3-  P166  1  0.33333333  0.16666667  0.41601584  1
  P3-  P167  1  0.33333333  0.83333333  0.41601584  1
  P3-  P168  1  0.66666667  0.50000000  0.41601584  1
  P3-  P169  1  0.66666667  0.16666667  0.41601584  1
  P3-  P170  1  0.66666667  0.83333333  0.41601584  1
  P3-  P171  1  0.16666667  0.33333333  0.36802489  1
  P3-  P172  1  0.16666667  -0.00000000  0.36802489  1
  P3-  P173  1  0.16666667  0.66666667  0.36802489  1
  P3-  P174  1  0.50000000  0.33333333  0.36802489  1
  P3-  P175  1  0.50000000  -0.00000000  0.36802489  1
  P3-  P176  1  0.50000000  0.66666667  0.36802489  1
  P3-  P177  1  0.83333333  0.33333333  0.36802489  1
  P3-  P178  1  0.83333333  -0.00000000  0.36802489  1
  P3-  P179  1  0.83333333  0.66666667  0.36802489  1
  P3-  P180  1  0.33333333  0.50000000  0.51199774  1
  P3-  P181  1  0.33333333  0.16666667  0.51199774  1
  P3-  P182  1  0.33333333  0.83333333  0.51199774  1
  P3-  P183  1  0.66666667  0.50000000  0.51199774  1
  P3-  P184  1  0.66666667  0.16666667  0.51199774  1
  P3-  P185  1  0.66666667  0.83333333  0.51199774  1
  P3-  P186  1  1.00000000  0.50000000  0.51199774  1
  P3-  P187  1  0.00000000  0.16666667  0.51199774  1
  P3-  P188  1  1.00000000  0.83333333  0.51199774  1
  P3-  P189  1  0.16666667  0.66666667  0.46400679  1
  P3-  P190  1  0.16666667  0.33333333  0.46400679  1
  P3-  P191  1  0.16666667  -0.00000000  0.46400679  1
  P3-  P192  1  0.50000000  0.66666667  0.46400679  1
  P3-  P193  1  0.50000000  0.33333333  0.46400679  1
  P3-  P194  1  0.50000000  -0.00000000  0.46400679  1
  P3-  P195  1  0.83333333  0.66666667  0.46400679  1
  P3-  P196  1  0.83333333  0.33333333  0.46400679  1
  P3-  P197  1  0.83333333  -0.00000000  0.46400679  1
  P3-  P198  1  0.33333333  0.50000000  0.60797964  1
  P3-  P199  1  0.33333333  0.16666667  0.60797964  1
  P3-  P200  1  0.33333333  0.83333333  0.60797964  1
  P3-  P201  1  0.66666667  0.50000000  0.60797964  1
  P3-  P202  1  0.66666667  0.16666667  0.60797964  1
  P3-  P203  1  0.66666667  0.83333333  0.60797964  1
  P3-  P204  1  1.00000000  0.50000000  0.60797964  1
  P3-  P205  1  0.00000000  0.16666667  0.60797964  1
  P3-  P206  1  0.00000000  0.83333333  0.60797964  1
  P3-  P207  1  0.16666667  0.33333333  0.55998869  1
  P3-  P208  1  0.16666667  -0.00000000  0.55998869  1
  P3-  P209  1  0.16666667  0.66666667  0.55998869  1
  P3-  P210  1  0.50000000  0.33333333  0.55998869  1
  P3-  P211  1  0.50000000  -0.00000000  0.55998869  1
  P3-  P212  1  0.50000000  0.66666667  0.55998869  1
  P3-  P213  1  0.83333333  0.33333333  0.55998869  1
  P3-  P214  1  0.83333333  -0.00000000  0.55998869  1
  P3-  P215  1  0.83333333  0.66666667  0.55998869  1
  P3-  P216  1  0.33333333  0.50000000  0.70396154  1
  P3-  P217  1  0.33333333  0.16666667  0.70396154  1
  P3-  P218  1  0.33333333  0.83333333  0.70396154  1
  P3-  P219  1  0.66666667  0.50000000  0.70396154  1
  P3-  P220  1  0.66666667  0.16666667  0.70396154  1
  P3-  P221  1  0.66666667  0.83333333  0.70396154  1
  P3-  P222  1  1.00000000  0.50000000  0.70396154  1
  P3-  P223  1  0.00000000  0.16666667  0.70396154  1
  P3-  P224  1  1.00000000  0.83333333  0.70396154  1
  P3-  P225  1  0.16666667  0.66666667  0.65597059  1
  P3-  P226  1  0.16666667  0.33333333  0.65597059  1
  P3-  P227  1  0.16666667  -0.00000000  0.65597059  1
  P3-  P228  1  0.50000000  0.66666667  0.65597059  1
  P3-  P229  1  0.50000000  0.33333333  0.65597059  1
  P3-  P230  1  0.50000000  -0.00000000  0.65597059  1
  P3-  P231  1  0.83333333  0.66666667  0.65597059  1
  P3-  P232  1  0.83333333  0.33333333  0.65597059  1
  P3-  P233  1  0.83333333  -0.00000000  0.65597059  1
  P3-  P234  1  0.00000000  0.50000000  0.79994344  1
  P3-  P235  1  0.00000000  0.16666667  0.79994344  1
  P3-  P236  1  0.00000000  0.83333333  0.79994344  1
  P3-  P237  1  0.33333333  0.50000000  0.79994344  1
  P3-  P238  1  0.33333333  0.16666667  0.79994344  1
  P3-  P239  1  0.33333333  0.83333333  0.79994344  1
  P3-  P240  1  0.66666667  0.50000000  0.79994344  1
  P3-  P241  1  0.66666667  0.16666667  0.79994344  1
  P3-  P242  1  0.66666667  0.83333333  0.79994344  1
  P3-  P243  1  0.16666667  0.66666667  0.75195249  1
  P3-  P244  1  0.16666667  0.33333333  0.75195249  1
  P3-  P245  1  0.16666667  -0.00000000  0.75195249  1
  P3-  P246  1  0.50000000  0.66666667  0.75195249  1
  P3-  P247  1  0.50000000  0.33333333  0.75195249  1
  P3-  P248  1  0.50000000  -0.00000000  0.75195249  1
  P3-  P249  1  0.83333333  0.66666667  0.75195249  1
  P3-  P250  1  0.83333333  0.33333333  0.75195249  1
  P3-  P251  1  0.83333333  -0.00000000  0.75195249  1
